06_Joshua_Smith/gisPython/Mocksville_Main_Circuit_Opendss/MOCKS_02/Elements/Loads.dss
New Load.254449021_3 Bus1=254449021.3 Phases=1 kV=13.8564 XFKVA=15.0 PF=0.95 yearly=YearlyC daily=DailyC
New Load.254455145_2 Bus1=254455145.2 Phases=1 kV=13.8564 XFKVA=10.0 PF=0.95 yearly=YearlyB daily=DailyB
New Load.384010358_1 Bus1=384010358.1 Phases=1 kV=13.8564 XFKVA=10.0 PF=0.95 yearly=YearlyA daily=DailyA
New Load.384010358_2 Bus1=384010358.2 Phases=1 kV=13.8564 XFKVA=10.0 PF=0.95 yearly=YearlyB daily=DailyB
New Load.384010358_3 Bus1=384010358.3 Phases=1 kV=13.8564 XFKVA=10.0 PF=0.95 yearly=YearlyC daily=DailyC
New Load.259265361_2 Bus1=259265361.2 Phases=1 kV=13.8564 XFKVA=25.0 PF=0.95 yearly=YearlyB daily=DailyB
New Load.254449236_1 Bus1=254449236.1 Phases=1 kV=13.8564 XFKVA=25.0 PF=0.95 yearly=YearlyA daily=DailyA
New Load.254449236_2 Bus1=254449236.2 Phases=1 kV=13.8564 XFKVA=25.0 PF=0.95 yearly=YearlyB daily=DailyB
New Load.254449236_3 Bus1=254449236.3 Phases=1 kV=13.8564 XFKVA=25.0 PF=0.95 yearly=YearlyC daily=DailyC
New Load.254449100_2 Bus1=254449100.2 Phases=1 kV=13.8564 XFKVA=25.0 PF=0.95 yearly=YearlyB daily=DailyB
New Load.254460593_3 Bus1=254460593.3 Phases=1 kV=13.8564 XFKVA=25.0 PF=0.95 yearly=YearlyC daily=DailyC
New Load.254432882_2 Bus1=254432882.2 Phases=1 kV=13.8564 XFKVA=25.0 PF=0.95 yearly=YearlyB daily=DailyB
New Load.254448321_2 Bus1=254448321.2 Phases=1 kV=13.8564 XFKVA=25.0 PF=0.95 yearly=YearlyB daily=DailyB
New Load.254455494_3 Bus1=254455494.3 Phases=1 kV=13.8564 XFKVA=10.0 PF=0.95 yearly=YearlyC daily=DailyC
New Load.254466442_2 Bus1=254466442.2 Phases=1 kV=13.8564 XFKVA=50.0 PF=0.95 yearly=YearlyB daily=DailyB
New Load.260117537_1 Bus1=260117537.1 Phases=1 kV=13.8564 XFKVA=25.0 PF=0.95 yearly=YearlyA daily=DailyA
New Load.254454960_2 Bus1=254454960.2 Phases=1 kV=13.8564 XFKVA=15.0 PF=0.95 yearly=YearlyB daily=DailyB
New Load.254460872_3 Bus1=254460872.3 Phases=1 kV=13.8564 XFKVA=10.0 PF=0.95 yearly=YearlyC daily=DailyC
New Load.254466381_3 Bus1=254466381.3 Phases=1 kV=13.8564 XFKVA=25.0 PF=0.95 yearly=YearlyC daily=DailyC
New Load.254460483_2 Bus1=254460483.2 Phases=1 kV=13.8564 XFKVA=25.0 PF=0.95 yearly=YearlyB daily=DailyB
New Load.254454793_1 Bus1=254454793.1 Phases=1 kV=13.8564 XFKVA=10.0 PF=0.95 yearly=YearlyA daily=DailyA
New Load.254459929_2 Bus1=254459929.2 Phases=1 kV=13.8564 XFKVA=25.0 PF=0.95 yearly=YearlyB daily=DailyB
New Load.259221660_1 Bus1=259221660.1 Phases=1 kV=13.8564 XFKVA=25.0 PF=0.95 yearly=YearlyA daily=DailyA
New Load.254449645_3 Bus1=254449645.3 Phases=1 kV=13.8564 XFKVA=25.0 PF=0.95 yearly=YearlyC daily=DailyC
New Load.260854706_3 Bus1=260854706.3 Phases=1 kV=13.8564 XFKVA=25.0 PF=0.95 yearly=YearlyC daily=DailyC
New Load.620295179_2 Bus1=620295179.2 Phases=1 kV=13.8564 XFKVA=25.0 PF=0.95 yearly=YearlyB daily=DailyB
New Load.254455656_1 Bus1=254455656.1 Phases=1 kV=13.8564 XFKVA=25.0 PF=0.95 yearly=YearlyA daily=DailyA
New Load.254444588_3 Bus1=254444588.3 Phases=1 kV=13.8564 XFKVA=15.0 PF=0.95 yearly=YearlyC daily=DailyC
New Load.259275415_3 Bus1=259275415.3 Phases=1 kV=13.8564 XFKVA=15.0 PF=0.95 yearly=YearlyC daily=DailyC
New Load.260980705_1 Bus1=260980705.1 Phases=1 kV=13.8564 XFKVA=25.0 PF=0.95 yearly=YearlyA daily=DailyA
New Load.254448766_1 Bus1=254448766.1 Phases=1 kV=13.8564 XFKVA=25.0 PF=0.95 yearly=YearlyA daily=DailyA
New Load.254455287_1 Bus1=254455287.1 Phases=1 kV=13.8564 XFKVA=25.0 PF=0.95 yearly=YearlyA daily=DailyA
New Load.254432862_1 Bus1=254432862.1 Phases=1 kV=13.8564 XFKVA=25.0 PF=0.95 yearly=YearlyA daily=DailyA
New Load.254444545_1 Bus1=254444545.1 Phases=1 kV=13.8564 XFKVA=25.0 PF=0.95 yearly=YearlyA daily=DailyA
New Load.254444545_2 Bus1=254444545.2 Phases=1 kV=13.8564 XFKVA=25.0 PF=0.95 yearly=YearlyB daily=DailyB
New Load.254444545_3 Bus1=254444545.3 Phases=1 kV=13.8564 XFKVA=25.0 PF=0.95 yearly=YearlyC daily=DailyC
New Load.254455115_2 Bus1=254455115.2 Phases=1 kV=13.8564 XFKVA=15.0 PF=0.95 yearly=YearlyB daily=DailyB
New Load.254460358_3 Bus1=254460358.3 Phases=1 kV=13.8564 XFKVA=25.0 PF=0.95 yearly=YearlyC daily=DailyC
New Load.254449614_3 Bus1=254449614.3 Phases=1 kV=13.8564 XFKVA=25.0 PF=0.95 yearly=YearlyC daily=DailyC
New Load.254448358_1 Bus1=254448358.1 Phases=1 kV=13.8564 XFKVA=25.0 PF=0.95 yearly=YearlyA daily=DailyA
New Load.260117547_3 Bus1=260117547.3 Phases=1 kV=13.8564 XFKVA=50.0 PF=0.95 yearly=YearlyC daily=DailyC
New Load.254448761_1 Bus1=254448761.1 Phases=1 kV=13.8564 XFKVA=25.0 PF=0.95 yearly=YearlyA daily=DailyA
New Load.254448316_2 Bus1=254448316.2 Phases=1 kV=13.8564 XFKVA=25.0 PF=0.95 yearly=YearlyB daily=DailyB
New Load.254449478_1 Bus1=254449478.1 Phases=1 kV=13.8564 XFKVA=25.0 PF=0.95 yearly=YearlyA daily=DailyA
New Load.254454465_1 Bus1=254454465.1 Phases=1 kV=13.8564 XFKVA=25.0 PF=0.95 yearly=YearlyA daily=DailyA
New Load.254460712_3 Bus1=254460712.3 Phases=1 kV=13.8564 XFKVA=15.0 PF=0.95 yearly=YearlyC daily=DailyC
New Load.254454985_2 Bus1=254454985.2 Phases=1 kV=13.8564 XFKVA=25.0 PF=0.95 yearly=YearlyB daily=DailyB
New Load.254454918_3 Bus1=254454918.3 Phases=1 kV=13.8564 XFKVA=15.0 PF=0.95 yearly=YearlyC daily=DailyC
New Load.254454696_1 Bus1=254454696.1 Phases=1 kV=13.8564 XFKVA=25.0 PF=0.95 yearly=YearlyA daily=DailyA
New Load.260883623_2 Bus1=260883623.2 Phases=1 kV=13.8564 XFKVA=75.0 PF=0.95 yearly=YearlyB daily=DailyB
New Load.254449635_3 Bus1=254449635.3 Phases=1 kV=13.8564 XFKVA=50.0 PF=0.95 yearly=YearlyC daily=DailyC
New Load.254460408_2 Bus1=254460408.2 Phases=1 kV=13.8564 XFKVA=25.0 PF=0.95 yearly=YearlyB daily=DailyB
New Load.254460638_1 Bus1=254460638.1 Phases=1 kV=13.8564 XFKVA=25.0 PF=0.95 yearly=YearlyA daily=DailyA
New Load.254454567_3 Bus1=254454567.3 Phases=1 kV=13.8564 XFKVA=25.0 PF=0.95 yearly=YearlyC daily=DailyC
New Load.261256681_1 Bus1=261256681.1 Phases=1 kV=13.8564 XFKVA=25.0 PF=0.95 yearly=YearlyA daily=DailyA
New Load.254448465_3 Bus1=254448465.3 Phases=1 kV=13.8564 XFKVA=15.0 PF=0.95 yearly=YearlyC daily=DailyC
New Load.254448856_1 Bus1=254448856.1 Phases=1 kV=13.8564 XFKVA=25.0 PF=0.95 yearly=YearlyA daily=DailyA
New Load.260874776_2 Bus1=260874776.2 Phases=1 kV=13.8564 XFKVA=25.0 PF=0.95 yearly=YearlyB daily=DailyB
New Load.450116400_1 Bus1=450116400.1 Phases=1 kV=13.8564 XFKVA=25.0 PF=0.95 yearly=YearlyA daily=DailyA
New Load.254461071_2 Bus1=254461071.2 Phases=1 kV=13.8564 XFKVA=25.0 PF=0.95 yearly=YearlyB daily=DailyB
New Load.254460019_2 Bus1=254460019.2 Phases=1 kV=13.8564 XFKVA=50.0 PF=0.95 yearly=YearlyB daily=DailyB
New Load.260119290_3 Bus1=260119290.3 Phases=1 kV=13.8564 XFKVA=15.0 PF=0.95 yearly=YearlyC daily=DailyC
New Load.254454328_3 Bus1=254454328.3 Phases=1 kV=13.8564 XFKVA=50.0 PF=0.95 yearly=YearlyC daily=DailyC
New Load.254455035_2 Bus1=254455035.2 Phases=1 kV=13.8564 XFKVA=25.0 PF=0.95 yearly=YearlyB daily=DailyB
New Load.254449650_3 Bus1=254449650.3 Phases=1 kV=13.8564 XFKVA=15.0 PF=0.95 yearly=YearlyC daily=DailyC
New Load.260119311_2 Bus1=260119311.2 Phases=1 kV=13.8564 XFKVA=25.0 PF=0.95 yearly=YearlyB daily=DailyB
New Load.254459727_1 Bus1=254459727.1 Phases=1 kV=13.8564 XFKVA=25.0 PF=0.95 yearly=YearlyA daily=DailyA
New Load.259199760_1 Bus1=259199760.1 Phases=1 kV=13.8564 XFKVA=10.0 PF=0.95 yearly=YearlyA daily=DailyA
New Load.259199760_2 Bus1=259199760.2 Phases=1 kV=13.8564 XFKVA=10.0 PF=0.95 yearly=YearlyB daily=DailyB
New Load.259199760_3 Bus1=259199760.3 Phases=1 kV=13.8564 XFKVA=10.0 PF=0.95 yearly=YearlyC daily=DailyC
New Load.254459964_3 Bus1=254459964.3 Phases=1 kV=13.8564 XFKVA=50.0 PF=0.95 yearly=YearlyC daily=DailyC
New Load.254460129_3 Bus1=254460129.3 Phases=1 kV=13.8564 XFKVA=25.0 PF=0.95 yearly=YearlyC daily=DailyC
New Load.254460034_2 Bus1=254460034.2 Phases=1 kV=13.8564 XFKVA=25.0 PF=0.95 yearly=YearlyB daily=DailyB
New Load.254448525_2 Bus1=254448525.2 Phases=1 kV=13.8564 XFKVA=15.0 PF=0.95 yearly=YearlyB daily=DailyB
New Load.260873761_1 Bus1=260873761.1 Phases=1 kV=13.8564 XFKVA=100.0 PF=0.95 yearly=YearlyA daily=DailyA
New Load.254449575_3 Bus1=254449575.3 Phases=1 kV=13.8564 XFKVA=25.0 PF=0.95 yearly=YearlyC daily=DailyC
New Load.260848169_3 Bus1=260848169.3 Phases=1 kV=13.8564 XFKVA=15.0 PF=0.95 yearly=YearlyC daily=DailyC
New Load.254466472_1 Bus1=254466472.1 Phases=1 kV=13.8564 XFKVA=25.0 PF=0.95 yearly=YearlyA daily=DailyA
New Load.254455374_3 Bus1=254455374.3 Phases=1 kV=13.8564 XFKVA=25.0 PF=0.95 yearly=YearlyC daily=DailyC
New Load.260119306_1 Bus1=260119306.1 Phases=1 kV=13.8564 XFKVA=50.0 PF=0.95 yearly=YearlyA daily=DailyA
New Load.260119306_2 Bus1=260119306.2 Phases=1 kV=13.8564 XFKVA=50.0 PF=0.95 yearly=YearlyB daily=DailyB
New Load.260119306_3 Bus1=260119306.3 Phases=1 kV=13.8564 XFKVA=50.0 PF=0.95 yearly=YearlyC daily=DailyC
New Load.254454425_2 Bus1=254454425.2 Phases=1 kV=13.8564 XFKVA=25.0 PF=0.95 yearly=YearlyB daily=DailyB
New Load.385538079_1 Bus1=385538079.1 Phases=1 kV=13.8564 XFKVA=15.0 PF=0.95 yearly=YearlyA daily=DailyA
New Load.254460660_2 Bus1=254460660.2 Phases=1 kV=13.8564 XFKVA=25.0 PF=0.95 yearly=YearlyB daily=DailyB
New Load.254455364_3 Bus1=254455364.3 Phases=1 kV=13.8564 XFKVA=25.0 PF=0.95 yearly=YearlyC daily=DailyC
New Load.254449159_1 Bus1=254449159.1 Phases=1 kV=13.8564 XFKVA=10.0 PF=0.95 yearly=YearlyA daily=DailyA
New Load.254449418_1 Bus1=254449418.1 Phases=1 kV=13.8564 XFKVA=25.0 PF=0.95 yearly=YearlyA daily=DailyA
New Load.254454400_2 Bus1=254454400.2 Phases=1 kV=13.8564 XFKVA=50.0 PF=0.95 yearly=YearlyB daily=DailyB
New Load.254448435_1 Bus1=254448435.1 Phases=1 kV=13.8564 XFKVA=25.0 PF=0.95 yearly=YearlyA daily=DailyA
New Load.254454883_2 Bus1=254454883.2 Phases=1 kV=13.8564 XFKVA=25.0 PF=0.95 yearly=YearlyB daily=DailyB
New Load.254454878_3 Bus1=254454878.3 Phases=1 kV=13.8564 XFKVA=25.0 PF=0.95 yearly=YearlyC daily=DailyC
New Load.254448219_3 Bus1=254448219.3 Phases=1 kV=13.8564 XFKVA=75.0 PF=0.95 yearly=YearlyC daily=DailyC
New Load.254454848_2 Bus1=254454848.2 Phases=1 kV=13.8564 XFKVA=25.0 PF=0.95 yearly=YearlyB daily=DailyB
New Load.254432872_1 Bus1=254432872.1 Phases=1 kV=13.8564 XFKVA=25.0 PF=0.95 yearly=YearlyA daily=DailyA
New Load.254448667_3 Bus1=254448667.3 Phases=1 kV=13.8564 XFKVA=25.0 PF=0.95 yearly=YearlyC daily=DailyC
New Load.254455556_1 Bus1=254455556.1 Phases=1 kV=13.8564 XFKVA=25.0 PF=0.95 yearly=YearlyA daily=DailyA
New Load.254454430_2 Bus1=254454430.2 Phases=1 kV=13.8564 XFKVA=25.0 PF=0.95 yearly=YearlyB daily=DailyB
New Load.254454641_1 Bus1=254454641.1 Phases=1 kV=13.8564 XFKVA=25.0 PF=0.95 yearly=YearlyA daily=DailyA
New Load.254448470_1 Bus1=254448470.1 Phases=1 kV=13.8564 XFKVA=25.0 PF=0.95 yearly=YearlyA daily=DailyA
New Load.261013856_2 Bus1=261013856.2 Phases=1 kV=13.8564 XFKVA=25.0 PF=0.95 yearly=YearlyB daily=DailyB
New Load.261127581_1 Bus1=261127581.1 Phases=1 kV=13.8564 XFKVA=100.0 PF=0.95 yearly=YearlyA daily=DailyA
New Load.261127581_2 Bus1=261127581.2 Phases=1 kV=13.8564 XFKVA=100.0 PF=0.95 yearly=YearlyB daily=DailyB
New Load.261127581_3 Bus1=261127581.3 Phases=1 kV=13.8564 XFKVA=100.0 PF=0.95 yearly=YearlyC daily=DailyC
New Load.259103776_3 Bus1=259103776.3 Phases=1 kV=13.8564 XFKVA=50.0 PF=0.95 yearly=YearlyC daily=DailyC
New Load.254449204_1 Bus1=254449204.1 Phases=1 kV=13.8564 XFKVA=25.0 PF=0.95 yearly=YearlyA daily=DailyA
New Load.254449204_2 Bus1=254449204.2 Phases=1 kV=13.8564 XFKVA=25.0 PF=0.95 yearly=YearlyB daily=DailyB
New Load.254449204_3 Bus1=254449204.3 Phases=1 kV=13.8564 XFKVA=25.0 PF=0.95 yearly=YearlyC daily=DailyC
New Load.260118351_3 Bus1=260118351.3 Phases=1 kV=13.8564 XFKVA=25.0 PF=0.95 yearly=YearlyC daily=DailyC
New Load.254432929_3 Bus1=254432929.3 Phases=1 kV=13.8564 XFKVA=25.0 PF=0.95 yearly=YearlyC daily=DailyC
New Load.260118341_1 Bus1=260118341.1 Phases=1 kV=13.8564 XFKVA=25.0 PF=0.95 yearly=YearlyA daily=DailyA
New Load.864708827_1 Bus1=864708827.1 Phases=1 kV=13.8564 XFKVA=25.0 PF=0.95 yearly=YearlyA daily=DailyA
New Load.254461087_3 Bus1=254461087.3 Phases=1 kV=13.8564 XFKVA=25.0 PF=0.95 yearly=YearlyC daily=DailyC
New Load.259565007_1 Bus1=259565007.1 Phases=1 kV=13.8564 XFKVA=25.0 PF=0.95 yearly=YearlyA daily=DailyA
New Load.259565007_2 Bus1=259565007.2 Phases=1 kV=13.8564 XFKVA=25.0 PF=0.95 yearly=YearlyB daily=DailyB
New Load.259565007_3 Bus1=259565007.3 Phases=1 kV=13.8564 XFKVA=25.0 PF=0.95 yearly=YearlyC daily=DailyC
New Load.254454858_2 Bus1=254454858.2 Phases=1 kV=13.8564 XFKVA=50.0 PF=0.95 yearly=YearlyB daily=DailyB
New Load.254454480_3 Bus1=254454480.3 Phases=1 kV=13.8564 XFKVA=15.0 PF=0.95 yearly=YearlyC daily=DailyC
New Load.254461017_3 Bus1=254461017.3 Phases=1 kV=13.8564 XFKVA=15.0 PF=0.95 yearly=YearlyC daily=DailyC
New Load.254459879_2 Bus1=254459879.2 Phases=1 kV=13.8564 XFKVA=25.0 PF=0.95 yearly=YearlyB daily=DailyB
New Load.254448244_1 Bus1=254448244.1 Phases=1 kV=13.8564 XFKVA=25.0 PF=0.95 yearly=YearlyA daily=DailyA
New Load.254432924_3 Bus1=254432924.3 Phases=1 kV=13.8564 XFKVA=10.0 PF=0.95 yearly=YearlyC daily=DailyC
New Load.254455626_1 Bus1=254455626.1 Phases=1 kV=13.8564 XFKVA=25.0 PF=0.95 yearly=YearlyA daily=DailyA
New Load.254448898_1 Bus1=254448898.1 Phases=1 kV=13.8564 XFKVA=25.0 PF=0.95 yearly=YearlyA daily=DailyA
New Load.254448898_2 Bus1=254448898.2 Phases=1 kV=13.8564 XFKVA=25.0 PF=0.95 yearly=YearlyB daily=DailyB
New Load.254448898_3 Bus1=254448898.3 Phases=1 kV=13.8564 XFKVA=25.0 PF=0.95 yearly=YearlyC daily=DailyC
New Load.254432902_3 Bus1=254432902.3 Phases=1 kV=13.8564 XFKVA=15.0 PF=0.95 yearly=YearlyC daily=DailyC
New Load.254432561_2 Bus1=254432561.2 Phases=1 kV=13.8564 XFKVA=15.0 PF=0.95 yearly=YearlyB daily=DailyB
New Load.254454599_3 Bus1=254454599.3 Phases=1 kV=13.8564 XFKVA=15.0 PF=0.95 yearly=YearlyC daily=DailyC
New Load.695164250_1 Bus1=695164250.1 Phases=1 kV=13.8564 XFKVA=666.7 PF=0.95 yearly=YearlyA daily=DailyA
New Load.695164250_2 Bus1=695164250.2 Phases=1 kV=13.8564 XFKVA=666.7 PF=0.95 yearly=YearlyB daily=DailyB
New Load.695164250_3 Bus1=695164250.3 Phases=1 kV=13.8564 XFKVA=666.7 PF=0.95 yearly=YearlyC daily=DailyC
New Load.254448974_3 Bus1=254448974.3 Phases=1 kV=13.8564 XFKVA=10.0 PF=0.95 yearly=YearlyC daily=DailyC
New Load.254460892_3 Bus1=254460892.3 Phases=1 kV=13.8564 XFKVA=25.0 PF=0.95 yearly=YearlyC daily=DailyC
New Load.254454435_2 Bus1=254454435.2 Phases=1 kV=13.8564 XFKVA=25.0 PF=0.95 yearly=YearlyB daily=DailyB
New Load.254448920_1 Bus1=254448920.1 Phases=1 kV=13.8564 XFKVA=25.0 PF=0.95 yearly=YearlyA daily=DailyA
New Load.254455080_2 Bus1=254455080.2 Phases=1 kV=13.8564 XFKVA=25.0 PF=0.95 yearly=YearlyB daily=DailyB
New Load.254460982_3 Bus1=254460982.3 Phases=1 kV=13.8564 XFKVA=25.0 PF=0.95 yearly=YearlyC daily=DailyC
New Load.254460573_3 Bus1=254460573.3 Phases=1 kV=13.8564 XFKVA=25.0 PF=0.95 yearly=YearlyC daily=DailyC
New Load.254454385_2 Bus1=254454385.2 Phases=1 kV=13.8564 XFKVA=25.0 PF=0.95 yearly=YearlyB daily=DailyB
New Load.254455190_2 Bus1=254455190.2 Phases=1 kV=13.8564 XFKVA=25.0 PF=0.95 yearly=YearlyB daily=DailyB
New Load.260118266_1 Bus1=260118266.1 Phases=1 kV=13.8564 XFKVA=50.0 PF=0.95 yearly=YearlyA daily=DailyA
New Load.260118266_2 Bus1=260118266.2 Phases=1 kV=13.8564 XFKVA=50.0 PF=0.95 yearly=YearlyB daily=DailyB
New Load.260118266_3 Bus1=260118266.3 Phases=1 kV=13.8564 XFKVA=50.0 PF=0.95 yearly=YearlyC daily=DailyC
New Load.254460942_3 Bus1=254460942.3 Phases=1 kV=13.8564 XFKVA=25.0 PF=0.95 yearly=YearlyC daily=DailyC
New Load.254449625_3 Bus1=254449625.3 Phases=1 kV=13.8564 XFKVA=50.0 PF=0.95 yearly=YearlyC daily=DailyC
New Load.254449640_3 Bus1=254449640.3 Phases=1 kV=13.8564 XFKVA=25.0 PF=0.95 yearly=YearlyC daily=DailyC
New Load.254448699_3 Bus1=254448699.3 Phases=1 kV=13.8564 XFKVA=10.0 PF=0.95 yearly=YearlyC daily=DailyC
New Load.466784201_1 Bus1=466784201.1 Phases=1 kV=13.8564 XFKVA=10.0 PF=0.95 yearly=YearlyA daily=DailyA
New Load.254459939_2 Bus1=254459939.2 Phases=1 kV=13.8564 XFKVA=25.0 PF=0.95 yearly=YearlyB daily=DailyB
New Load.254460318_2 Bus1=254460318.2 Phases=1 kV=13.8564 XFKVA=25.0 PF=0.95 yearly=YearlyB daily=DailyB
New Load.261134695_1 Bus1=261134695.1 Phases=1 kV=13.8564 XFKVA=166.7 PF=0.95 yearly=YearlyA daily=DailyA
New Load.261134695_2 Bus1=261134695.2 Phases=1 kV=13.8564 XFKVA=166.7 PF=0.95 yearly=YearlyB daily=DailyB
New Load.261134695_3 Bus1=261134695.3 Phases=1 kV=13.8564 XFKVA=166.7 PF=0.95 yearly=YearlyC daily=DailyC
New Load.254454636_1 Bus1=254454636.1 Phases=1 kV=13.8564 XFKVA=25.0 PF=0.95 yearly=YearlyA daily=DailyA
New Load.292080330_3 Bus1=292080330.3 Phases=1 kV=13.8564 XFKVA=50.0 PF=0.95 yearly=YearlyC daily=DailyC
New Load.254459944_2 Bus1=254459944.2 Phases=1 kV=13.8564 XFKVA=25.0 PF=0.95 yearly=YearlyB daily=DailyB
New Load.254461077_1 Bus1=254461077.1 Phases=1 kV=13.8564 XFKVA=15.0 PF=0.95 yearly=YearlyA daily=DailyA
New Load.254449383_2 Bus1=254449383.2 Phases=1 kV=13.8564 XFKVA=25.0 PF=0.95 yearly=YearlyB daily=DailyB
New Load.254455434_1 Bus1=254455434.1 Phases=1 kV=13.8564 XFKVA=25.0 PF=0.95 yearly=YearlyA daily=DailyA
New Load.254459752_1 Bus1=254459752.1 Phases=1 kV=13.8564 XFKVA=25.0 PF=0.95 yearly=YearlyA daily=DailyA
New Load.260119695_1 Bus1=260119695.1 Phases=1 kV=13.8564 XFKVA=50.0 PF=0.95 yearly=YearlyA daily=DailyA
New Load.260119695_2 Bus1=260119695.2 Phases=1 kV=13.8564 XFKVA=50.0 PF=0.95 yearly=YearlyB daily=DailyB
New Load.260119695_3 Bus1=260119695.3 Phases=1 kV=13.8564 XFKVA=50.0 PF=0.95 yearly=YearlyC daily=DailyC
New Load.254455090_2 Bus1=254455090.2 Phases=1 kV=13.8564 XFKVA=25.0 PF=0.95 yearly=YearlyB daily=DailyB
New Load.254460338_2 Bus1=254460338.2 Phases=1 kV=13.8564 XFKVA=15.0 PF=0.95 yearly=YearlyB daily=DailyB
New Load.254449488_1 Bus1=254449488.1 Phases=1 kV=13.8564 XFKVA=25.0 PF=0.95 yearly=YearlyA daily=DailyA
New Load.254449488_2 Bus1=254449488.2 Phases=1 kV=13.8564 XFKVA=25.0 PF=0.95 yearly=YearlyB daily=DailyB
New Load.254449488_3 Bus1=254449488.3 Phases=1 kV=13.8564 XFKVA=25.0 PF=0.95 yearly=YearlyC daily=DailyC
New Load.254460383_3 Bus1=254460383.3 Phases=1 kV=13.8564 XFKVA=15.0 PF=0.95 yearly=YearlyC daily=DailyC
New Load.260119321_3 Bus1=260119321.3 Phases=1 kV=13.8564 XFKVA=25.0 PF=0.95 yearly=YearlyC daily=DailyC
New Load.385538343_3 Bus1=385538343.3 Phases=1 kV=13.8564 XFKVA=25.0 PF=0.95 yearly=YearlyC daily=DailyC
New Load.254460453_2 Bus1=254460453.2 Phases=1 kV=13.8564 XFKVA=15.0 PF=0.95 yearly=YearlyB daily=DailyB
New Load.260941731_3 Bus1=260941731.3 Phases=1 kV=13.8564 XFKVA=50.0 PF=0.95 yearly=YearlyC daily=DailyC
New Load.254460039_3 Bus1=254460039.3 Phases=1 kV=13.8564 XFKVA=50.0 PF=0.95 yearly=YearlyC daily=DailyC
New Load.254448781_1 Bus1=254448781.1 Phases=1 kV=13.8564 XFKVA=25.0 PF=0.95 yearly=YearlyA daily=DailyA
New Load.254454681_1 Bus1=254454681.1 Phases=1 kV=13.8564 XFKVA=10.0 PF=0.95 yearly=YearlyA daily=DailyA
New Load.261311042_1 Bus1=261311042.1 Phases=1 kV=13.8564 XFKVA=166.7 PF=0.95 yearly=YearlyA daily=DailyA
New Load.261311042_2 Bus1=261311042.2 Phases=1 kV=13.8564 XFKVA=166.7 PF=0.95 yearly=YearlyB daily=DailyB
New Load.261311042_3 Bus1=261311042.3 Phases=1 kV=13.8564 XFKVA=166.7 PF=0.95 yearly=YearlyC daily=DailyC
New Load.254454609_1 Bus1=254454609.1 Phases=1 kV=13.8564 XFKVA=25.0 PF=0.95 yearly=YearlyA daily=DailyA
New Load.254454592_2 Bus1=254454592.2 Phases=1 kV=13.8564 XFKVA=25.0 PF=0.95 yearly=YearlyB daily=DailyB
New Load.260873756_1 Bus1=260873756.1 Phases=1 kV=13.8564 XFKVA=75.0 PF=0.95 yearly=YearlyA daily=DailyA
New Load.260932383_3 Bus1=260932383.3 Phases=1 kV=13.8564 XFKVA=15.0 PF=0.95 yearly=YearlyC daily=DailyC
New Load.254459812_3 Bus1=254459812.3 Phases=1 kV=13.8564 XFKVA=15.0 PF=0.95 yearly=YearlyC daily=DailyC
New Load.254448580_1 Bus1=254448580.1 Phases=1 kV=13.8564 XFKVA=15.0 PF=0.95 yearly=YearlyA daily=DailyA
New Load.254448580_2 Bus1=254448580.2 Phases=1 kV=13.8564 XFKVA=15.0 PF=0.95 yearly=YearlyB daily=DailyB
New Load.254448580_3 Bus1=254448580.3 Phases=1 kV=13.8564 XFKVA=15.0 PF=0.95 yearly=YearlyC daily=DailyC
New Load.261131577_1 Bus1=261131577.1 Phases=1 kV=13.8564 XFKVA=50.0 PF=0.95 yearly=YearlyA daily=DailyA
New Load.261131577_2 Bus1=261131577.2 Phases=1 kV=13.8564 XFKVA=50.0 PF=0.95 yearly=YearlyB daily=DailyB
New Load.261131577_3 Bus1=261131577.3 Phases=1 kV=13.8564 XFKVA=50.0 PF=0.95 yearly=YearlyC daily=DailyC
New Load.254444583_1 Bus1=254444583.1 Phases=1 kV=13.8564 XFKVA=15.0 PF=0.95 yearly=YearlyA daily=DailyA
New Load.260118316_2 Bus1=260118316.2 Phases=1 kV=13.8564 XFKVA=25.0 PF=0.95 yearly=YearlyB daily=DailyB
New Load.254448746_2 Bus1=254448746.2 Phases=1 kV=13.8564 XFKVA=25.0 PF=0.95 yearly=YearlyB daily=DailyB
New Load.254455302_1 Bus1=254455302.1 Phases=1 kV=13.8564 XFKVA=15.0 PF=0.95 yearly=YearlyA daily=DailyA
New Load.254459717_1 Bus1=254459717.1 Phases=1 kV=13.8564 XFKVA=15.0 PF=0.95 yearly=YearlyA daily=DailyA
New Load.260899814_1 Bus1=260899814.1 Phases=1 kV=13.8564 XFKVA=666.7 PF=0.95 yearly=YearlyA daily=DailyA
New Load.260899814_2 Bus1=260899814.2 Phases=1 kV=13.8564 XFKVA=666.7 PF=0.95 yearly=YearlyB daily=DailyB
New Load.260899814_3 Bus1=260899814.3 Phases=1 kV=13.8564 XFKVA=666.7 PF=0.95 yearly=YearlyC daily=DailyC
New Load.620369305_3 Bus1=620369305.3 Phases=1 kV=13.8564 XFKVA=25.0 PF=0.95 yearly=YearlyC daily=DailyC
...
